AD	3154057987,40886,,0,0
AE	421142267937,43103,0.659,0,0
AF	19101353832,502,0.389,0,0
AG	1727759259,17790,,0,0
AL	15278077446,5352,0.621,0,0
AM	13672802157,4622,0.572,0,0
AO	94635415869,2973,0.361,0,0
AR	449663446954,10006,0.611,481379,83630
AS	636000000,11466,,0,0
AT	455140042000,51448,0.793,0,0
AU	1392680589329,54907,0.803,0,0
AW	3056424581,29007,,0,0
AZ	48047647058,4793,0.597,0,0
BA	20047848434,6073,0.618,0,0
BB	5209000000,18148,,0,0
BD	302571254131,1855,0.479,0,0
BE	542587364000,47436,0.757,135954,0
BF	15745810234,774,0.369,0,0
BG	66182565600,9440,0.676,0,0
BH	38574069148,23503,0.668,0,0
BI	3012334881,261,0.38,0,0
BJ	14390709094,1219,0.406,0,0
BN	13469422941,31086,,0,0
BO	40895322865,3552,,0,0
BR	1839758040765,8717,0.56,1789937,566482
BS	12827000000,32933,,0,0
BT	2446674102,3243,,0,0
BW	18340510789,7961,0.424,0,0
BY	63080457022,6663,,0,0
BZ	1879613600,4815,,0,0
CA	1736425629519,46194,0.799,0,0
CD	47319624204,545,0.369,0,0
CF	2220307368,467,,0,0
CG	10820591130,2011,0.42,0,0
CH	703082435360,81993,0.767,57708,0
CI	58792205642,2286,0.353,0,0
CL	282318159744,14896,0.674,0,0
CM	38760467033,1497,0.394,0,0
CN	14342902842915,10261,0.673,0,0
CO	323802808108,6432,0.593,0,0
CR	61773944173,12238,0.619,0,0
CU	100023000000,8821,,0,0
CV	1981845740,3603,,0,0
CW	3127908044,19573,,0,0
CY	24942615800,28674,0.751,0,0
CZ	244932977600,23010,0.782,0,0
DE	3946356600000,47554,0.795,0,0
DJ	3318716359,3408,,0,0
DK	355582262000,61360,0.774,0,0
DM	596033333,8300,,0,0
DO	88941298257,8282,0.492,0,0
DZ	169988236398,3948,0.523,0,0
EC	107435665000,6183,0.602,0,0
EE	30722303000,23246,0.747,0,0
EG	303175127597,3020,0.486,0,0
ES	1418587740000,30326,0.743,516217,49452
ET	96107662398,857,0.385,0,0
FI	276654540000,50150,0.814,0,0
FJ	5535548972,6220,,0,0
FM	401932300,3568,,0,0
FO	2833300519,58622,,0,0
FR	2776646200000,41300,0.765,913473,145428
GA	16657960228,7667,0.453,0,0
GB	2860009176200,43070,0.781,989921,0
GD	1228170370,10965,,0,0
GE	17743195770,4769,0.614,0,0
GH	66983634223,2202,0.439,0,0
GL	3051626389,54470,,0,0
GM	1763819047,751,0.397,0,0
GN	13590281808,1064,0.374,0,0
GQ	11026774945,8131,,0,0
GR	217962048000,20296,0.681,0,0
GT	76710385879,4619,0.46,0,0
GU	5920000000,35712,,0,0
GW	1340389410,697,,0,0
GY	4280443645,5468,0.495,0,0
HK	366029556273,48755,0.822,14054,0
HN	25095395475,2574,0.49,0,0
HR	60917594400,14868,0.723,0,0
HT	8498981820,754,0.446,0,0
HU	157862996000,16166,0.703,0,0
ID	1119190780752,4135,0.535,0,0
IE	382365076000,78706,0.806,0,0
IL	395098666121,43641,0.763,0,0
IM	6770532818,80989,,0,0
IN	2875142314811,2104,0.44,0,0
IQ	234094042938,5955,0.398,0,0
IR	445345282122,5520,0.591,0,0
IS	24188035738,66944,0.74,0,0
IT	2083196780000,34456,0.769,0,0
JM	16458071067,5582,0.544,0,0
JO	43743661971,4330,0.562,0,0
JP	5081769542379,40246,0.844,190447691,0
KE	95503088538,1816,0.518,0,0
KG	8454619607,1309,0.58,0,0
KH	27089389786,1643,0.493,0,0
KI	194647201,1655,0.479,0,0
KM	1185728676,1393,0.409,0,0
KN	1050992592,19896,,0,0
KR	1642383217167,31761,0.845,0,0
KW	134761198945,32031,0.576,0,0
KY	5485419416,85477,,0,0
KZ	180161741180,9731,0.746,0,0
LA	18173839128,2534,0.452,0,0
LB	53367042272,7784,0.538,0,0
LC	2122450629,11611,,0,0
LI	6552858738,173356,,336,0
LK	84008783756,3853,0.584,0,0
LR	3070518100,621,0.319,0,0
LS	2460072443,1157,0.371,0,0
LT	53411968400,19116,0.712,0,0
LU	70862634400,116348,0.692,0,0
LV	34398215400,17818,0.724,0,0
LY	52076250947,7683,,0,0
MA	118725279596,3204,0.5,0,0
MC	7188238072,185829,,0,0
MD	11955435456,4498,0.58,0,0
ME	5494736901,8832,0.615,0,0
MG	14083906356,522,0.374,0,0
MH	221278000,3788,,0,0
MK	12694823394,6093,0.534,0,0
ML	17510141171,890,0.317,0,0
MM	76085852617,1407,0.473,0,0
MN	13852850259,4295,0.626,0,0
MO	53859116535,84096,0.759,0,0
MP	1323000000,23258,,0,0
MR	7593752450,1677,0.353,0,0
MT	14606972200,30090,0.701,0,0
MU	14180444557,11203,0.626,0,0
MV	5729248472,10790,,0,0
MW	7666704427,411,0.407,0,0
MX	1258286717124,9863,0.607,649639,51333
MY	364701517787,11414,0.622,554507,0
MZ	14934159925,491,0.361,0,0
NA	12366527719,4957,0.435,0,0
NE	12928145120,554,0.316,0,0
NG	448120428858,2229,0.342,0,0
NI	12520915291,1912,0.531,0,0
NL	913366020000,52982,0.8,0,0
NO	403336363636,75419,0.771,0,0
NP	30641380604,1071,0.49,0,0
NR	118223430,9396,,0,0
NZ	206928765543,42084,0.767,0,0
OM	76983094928,15474,0.622,0,0
PA	66800800000,15731,0.532,0,0
PE	226848050819,6977,0.586,0,0
PG	24969611434,2845,0.384,0,0
PH	376795508679,3485,0.548,82021,0
PK	278221906022,1284,0.389,0,0
PL	585705873800,15222,0.747,0,0
PR	104988600000,32873,,0,0
PS	14615900000,3198,0.554,0,0
PT	240597516000,23364,0.776,0,0
PW	283994900,15859,,0,0
PY	38145288939,5414,0.533,0,0
QA	183466208791,64781,0.615,0,0
RO	241475766400,12390,0.601,0,0
RS	51409167350,7402,0.755,0,0
RU	1699876578871,11584,0.729,0,0
RW	10122472590,801,0.374,0,0
SA	792966838161,23139,0.585,0,0
SB	1425074225,2127,0.443,0,0
SC	1698843062,17401,0.678,0,0
SD	18902284475,441,0.379,0,0
SE	556025322000,54634,0.8,0,9424
SG	372062527488,65233,0.884,0,0
SI	53990687600,26078,0.788,0,0
SK	105870732800,19470,0.694,0,0
SL	3941474310,504,0.351,0,0
SM	1637931034,48481,,0,0
SN	23578084052,1446,0.418,0,0
SR	3985250737,6854,,0,0
SS	11997800760,1119,0.302,0,0
ST	429016605,1994,,0,0
SV	27022640000,4187,0.501,0,0
SZ	4405405802,3837,0.409,0,0
TC	1022312010,27142,,0,0
TD	11314951342,709,0.293,0,0
TG	5459979416,675,0.413,0,0
TH	543649976165,7808,0.604,51840,0
TJ	8116626794,870,0.533,0,0
TL	1673540300,1294,0.434,0,0
TM	40761142857,6966,,0,0
TN	38797709923,3317,0.508,0,0
TO	450353313,4364,0.512,0,0
TR	754411708202,9042,0.626,0,0
TT	24100202833,17276,0.613,0,0
TV	47271463,4059,0.554,0,0
TZ	63177068174,1122,0.4,0,0
UA	153781069118,3659,0.647,0,0
UG	34387229486,776,0.382,0,0
US	21374418877706,65118,0.762,5682939,45475
US_AK	,,,3941,0
US_AL	,,,116559,2499
US_AR	,,,65209,0
US_AS	,,,221,0
US_AZ	,,,145483,0
US_CA	,,,508424,0
US_CO	,,,90215,0
US_CT	,,,60055,0
US_DC	,,,13782,0
US_DE	,,,17012,0
US_FL	,,,529211,0
US_GA	,,,242631,8206
US_GU	,,,0,0
US_HI	,,,14276,0
US_IA	,,,47913,0
US_ID	,,,24280,1239
US_IL	,,,189035,0
US_IN	,,,133179,6610
US_KS	,,,52034,2356
US_KY	,,,147989,3857
US_LA	,,,92687,0
US_MA	,,,91393,0
US_MD	,,,93004,0
US_ME	,,,11969,0
US_MI	,,,164915,0
US_MN	,,,68746,5347
US_MO	,,,112078,0
US_MP	,,,4,0
US_MS	,,,54495,0
US_MT	,,,27064,0
US_NC	,,,144966,0
US_ND	,,,13307,431
US_NE	,,,28069,0
US_NH	,,,15167,266
US_NJ	,,,159196,0
US_NM	,,,36212,0
US_NV	,,,58887,0
US_NY	,,,303956,0
US_OH	,,,231903,7133
US_OK	,,,111165,0
US_OR	,,,37806,0
US_PA	,,,207579,0
US_PR	,,,23786,0
US_RI	,,,10419,0
US_SC	,,,88698,0
US_SD	,,,17714,0
US_TN	,,,120990,0
US_TX	,,,563190,0
US_UT	,,,42296,2185
US_VA	,,,108753,0
US_VI	,,,488,0
US_VT	,,,4786,0
US_WA	,,,67861,0
US_WI	,,,116513,2098
US_WV	,,,36463,0
US_WY	,,,10907,0
UY	56045912952,16190,0.6,0,0
UZ	57921286440,1724,,0,0
VC	825385185,7463,,0,0
VI	3855000000,35938,,0,0
VN	261921244843,2715,0.666,0,0
VU	917058850,3058,0.471,0,0
WS	850655017,4315,,0,0
YE	27591261663,968,0.369,0,0
ZA	351431649241,6001,0.406,0,0
ZM	23064722446,1291,0.396,0,0
ZW	21440758800,1463,0.441,0,0
